
#######################################################################
#
#                 Cambridge Crystallographic Data Centre
#                                CCDC 
#
#######################################################################
#
# If this CIF has been generated from an entry in the Cambridge 
# Structural Database, then it will include bibliographic, chemical, 
# crystal, experimental, refinement or atomic coordinate data resulting 
# from the CCDC's data processing and validation procedures.
#
#######################################################################

data_DPC99190
_symmetry_cell_setting           orthorhombic
_symmetry_space_group_name_H-M   'P 21 21 2'
_symmetry_Int_Tables_number      18
_space_group_name_Hall           'P 2 2ab'
loop_
_symmetry_equiv_pos_site_id
_symmetry_equiv_pos_as_xyz
1 x,y,z
2 1/2+x,1/2-y,-z
3 -x,-y,z
4 1/2-x,1/2+y,-z
_cell_length_a                   16.8507(15)
_cell_length_b                   27.266(2)
_cell_length_c                   9.7198(10)
_cell_angle_alpha                90
_cell_angle_beta                 90
_cell_angle_gamma                90
_cell_volume                     4465.77
loop_
_atom_site_label
_atom_site_type_symbol
_atom_site_fract_x
_atom_site_fract_y
_atom_site_fract_z
Cl1 Cl -0.07791 0.27048 0.86707
F1 F 0.00617 0.16315 0.33950
C1 C -0.12135 0.15791 0.44290
C2 C -0.06895 0.17981 0.33220
F2 F -0.09441 0.17166 0.20463
O1 O -0.12295 0.10634 0.40720
F3 F -0.06302 0.22888 0.34640
O2 O -0.07311 0.03165 0.40854
C3 C -0.07364 0.07079 0.46101
N1 N -0.03305 0.08451 0.57448
C4 C -0.04136 0.12882 0.64238
C5 C -0.08545 0.16590 0.58354
C6 C -0.00914 0.13513 0.77201
C7 C -0.01863 0.17870 0.83950
C8 C -0.06201 0.21531 0.77932
C9 C -0.09803 0.20933 0.65123
C10 C -0.20164 0.17643 0.43138
C11 C -0.26383 0.19272 0.42603
C12 C -0.34619 0.20974 0.40699
C13 C -0.36571 0.24594 0.45596
C14 C -0.40612 0.20974 0.46101
H1 H 0.00077 0.06401 0.60730
H2 H 0.01899 0.10971 0.81327
H3 H 0.00415 0.18351 0.92561
H4 H -0.12930 0.23395 0.61306
H5 H -0.35598 0.21212 0.30771
H6 H -0.38239 0.27224 0.39537
H7 H -0.33919 0.25632 0.53950
H8 H -0.41028 0.19272 0.54814
H9 H -0.45348 0.20864 0.40411
Cl2 Cl -0.31830 -0.18164 0.56100
F4 F -0.29961 -0.13623 0.03467
C15 C -0.16835 -0.14041 0.10885
C16 C -0.22870 -0.11741 0.00885
F5 F -0.23350 -0.06940 0.03076
O3 O -0.09150 -0.11859 0.06903
F6 F -0.20900 -0.12482 -0.11749
O4 O -0.00866 -0.05641 0.06780
C17 C -0.06433 -0.07600 0.12593
N2 N -0.09785 -0.06111 0.24136
C18 C -0.15393 -0.08741 0.31811
C19 C -0.18603 -0.12900 0.25586
C20 C -0.17132 -0.07629 0.44887
C21 C -0.22300 -0.10322 0.52531
C22 C -0.25611 -0.14401 0.46450
C23 C -0.23784 -0.15692 0.32973
C24 C -0.16360 -0.19253 0.08220
C25 C -0.16431 -0.23343 0.05802
C26 C -0.15785 -0.28963 0.03899
C27 C -0.21202 -0.31963 0.10504
C28 C -0.21173 -0.30694 -0.02603
H10 H -0.08391 -0.03279 0.27212
H11 H -0.14710 -0.04919 0.48889
H12 H -0.23564 -0.09430 0.61512
H13 H -0.26092 -0.18443 0.29002
H14 H -0.10474 -0.30312 0.02243
H15 H -0.19594 -0.35264 0.12901
H16 H -0.25083 -0.30463 0.16543
H17 H -0.19861 -0.33225 -0.09218
H18 H -0.25303 -0.28464 -0.05617
Cl3 Cl 0.41597 -0.07439 1.21686
F7 F 0.27581 -0.04218 0.54403
C29 C 0.27362 -0.01379 0.77345
C30 C 0.27433 -0.05652 0.67386
F8 F 0.33942 -0.08411 0.69053
O5 O 0.20484 0.01412 0.73816
F9 F 0.21303 -0.08568 0.69074
O6 O 0.07506 0.02520 0.74321
C31 C 0.13144 0.00561 0.79372
N3 N 0.12983 -0.02300 0.90617
C32 C 0.19677 -0.03789 0.97849
C33 C 0.26952 -0.03239 0.91851
C34 C 0.18823 -0.05619 1.11110
C35 C 0.25457 -0.06731 1.18168
C36 C 0.32916 -0.06060 1.12520
C37 C 0.33681 -0.04251 0.99248
C38 C 0.34043 0.01801 0.74722
C39 C 0.40054 0.05040 0.75997
C40 C 0.47151 0.09130 0.73199
C41 C 0.44831 0.13821 0.77695
C42 C 0.48493 0.10942 0.88497
H19 H 0.08426 -0.03272 0.93549
H20 H 0.13826 -0.06071 1.14979
H21 H 0.25006 -0.07982 1.27036
H22 H 0.38672 -0.03741 0.95432
H H 0.519954 0.0852882 0.659776
H H 0.385239 0.146513 0.784323
H H 0.479836 0.170097 0.7374
H H 0.544195 0.118225 0.922202
H H 0.449598 0.0946413 0.969125

#END
