
#######################################################################
#
#                 Cambridge Crystallographic Data Centre
#                                CCDC 
#
#######################################################################
#
# If this CIF has been generated from an entry in the Cambridge 
# Structural Database, then it will include bibliographic, chemical, 
# crystal, experimental, refinement or atomic coordinate data resulting 
# from the CCDC's data processing and validation procedures.
#
#######################################################################

data_RUKGUZ
_symmetry_cell_setting           orthorhombic
_symmetry_space_group_name_H-M   'P 21 21 21'
_symmetry_Int_Tables_number      19
_space_group_name_Hall           'P 2ac 2ab'
loop_
_symmetry_equiv_pos_site_id
_symmetry_equiv_pos_as_xyz
1 x,y,z
2 1/2-x,-y,1/2+z
3 1/2+x,1/2-y,-z
4 -x,1/2+y,1/2-z
_cell_length_a                   10.427(2)
_cell_length_b                   14.327(3)
_cell_length_c                   34.851(7)
_cell_angle_alpha                90
_cell_angle_beta                 90
_cell_angle_gamma                90
_cell_volume                     5206.31
loop_
_atom_site_label
_atom_site_type_symbol
_atom_site_fract_x
_atom_site_fract_y
_atom_site_fract_z
S1 S 0.7986(2) 0.94507(12) 0.01691(5)
N1 N 0.8565(5) 0.9525(3) 0.11065(13)
O1 O 0.6925(4) 0.9777(3) 0.15236(11)
C1 C 0.7908(6) 0.9335(4) 0.1451(2)
C2 C 0.8911(6) 1.0503(4) 0.0230(2)
H1 H 0.8428(6) 1.1029(4) 0.0122(2)
O2 O 0.9037(4) 1.0636(3) 0.06397(10)
N2 N 0.8378(5) 0.8676(3) 0.16874(13)
C3 C 0.9413(6) 0.8185(4) 0.1592(2)
N3 N 0.9789(5) 0.7514(4) 0.18293(14)
H2 H 0.9367(5) 0.7409(4) 0.20370(14)
H3 H 1.0455(5) 0.7185(4) 0.17756(14)
C4 C 0.8029(6) 1.0234(4) 0.0850(2)
H4 H 0.7615(6) 1.0719(4) 0.1005(2)
C5 C 0.7045(6) 0.9824(5) 0.0574(2)
H5 H 0.6421(6) 1.0292(5) 0.0498(2)
H6 H 0.6599(6) 0.9301(5) 0.0690(2)
C6 C 1.0083(5) 0.8346(4) 0.1241(2)
H7 H 1.0804(5) 0.7999(4) 0.1176(2)
O3 O 1.0963(4) 0.9705(3) 0.01571(15)
H8 H 1.0763(56) 0.9262(16) 0.0021(16)
C7 C 0.9636(5) 0.9014(4) 0.1011(2)
H9 H 1.0055(5) 0.9137(4) 0.0781(2)
C8 C 1.0222(6) 1.0491(5) 0.0056(2)
H10 H 1.0138(6) 1.0510(5) -0.0222(2)
H11 H 1.0675(6) 1.1050(5) 0.0134(2)
S2 S 0.9481(2) 1.15992(11) 0.17164(5)
N4 N 0.8285(4) 1.2838(3) 0.10053(13)
O4 O 0.9430(4) 1.2845(3) 0.04502(11)
C9 C 0.8362(6) 1.2768(4) 0.0603(2)
C10 C 0.9538(6) 1.2775(4) 0.1897(2)
H12 H 1.0426(6) 1.2913(4) 0.1970(2)
O5 O 0.9198(4) 1.3372(3) 0.15806(11)
N5 N 0.7276(4) 1.2598(3) 0.04005(13)
N6 N 0.5112(5) 1.2326(4) 0.03829(14)
H13 H 0.5169(5) 1.2249(4) 0.01387(14)
H14 H 0.4381(5) 1.2274(4) 0.04951(14)
C11 C 0.6159(6) 1.2524(4) 0.0588(2)
C12 C 0.9499(6) 1.2975(4) 0.1218(2)
H15 H 1.0055(6) 1.3403(4) 0.1075(2)
C13 C 0.6044(6) 1.2634(4) 0.0990(2)
H16 H 0.5253(6) 1.2605(4) 0.1113(2)
C14 C 1.0202(6) 1.2057(4) 0.1286(2)
H17 H 1.1113(6) 1.2162(4) 0.1322(2)
H18 H 1.0080(6) 1.1634(4) 0.1072(2)
O6 O 0.7402(4) 1.2710(3) 0.21785(14)
H19 H 0.6963(14) 1.3168(8) 0.2127(22)
C15 C 0.7133(6) 1.2782(4) 0.1186(2)
H20 H 0.7098(6) 1.2849(4) 0.1451(2)
C16 C 0.8698(7) 1.2990(5) 0.2231(2)
H21 H 0.9039(7) 1.2679(5) 0.2456(2)
H22 H 0.8721(7) 1.3656(5) 0.2278(2)
S3 S 0.7732(2) 1.07577(13) -0.12927(5)
N7 N 0.6101(4) 0.9093(3) -0.06175(13)
O7 O 0.6693(4) 0.7587(3) -0.05080(12)
C17 C 0.5987(6) 0.8235(4) -0.0429(2)
C18 C 0.7147(6) 0.9743(4) -0.1546(2)
H23 H 0.7875(6) 0.9357(4) -0.1627(2)
O8 O 0.6410(4) 0.9248(3) -0.12711(12)
N8 N 0.5044(5) 0.8163(3) -0.01580(13)
C19 C 0.7090(6) 0.9200(5) -0.0913(2)
H24 H 0.7641(6) 0.8645(5) -0.0913(2)
C20 C 0.4275(6) 0.8878(4) -0.0080(2)
N9 N 0.3341(5) 0.8750(4) 0.01772(15)
H25 H 0.3251(5) 0.8217(4) 0.02871(15)
H26 H 0.2830(5) 0.9201(4) 0.02329(15)
C21 C 0.4428(6) 0.9751(4) -0.0259(2)
H27 H 0.3916(6) 1.0258(4) -0.0194(2)
C22 C 0.7927(6) 1.0076(5) -0.0864(2)
H28 H 0.8820(6) 0.9902(5) -0.0831(2)
H29 H 0.7655(6) 1.0430(5) -0.0641(2)
O9 O 0.6058(4) 0.9157(3) -0.20872(12)
H30 H 0.5492(53) 0.9264(13) -0.2245(16)
C23 C 0.5332(6) 0.9820(4) -0.0524(2)
H31 H 0.5443(6) 1.0386(4) -0.0650(2)
C24 C 0.6342(6) 0.9974(4) -0.1885(2)
H32 H 0.5553(6) 1.0271(4) -0.1802(2)
H33 H 0.6797(6) 1.0406(4) -0.2051(2)
S4 S 0.7909(12) 0.6600(6) 0.1124(4)
N10 N 0.5585(4) 0.5562(3) 0.17689(13)
O10 O 0.5875(4) 0.4043(3) 0.19168(12)
C25 C 0.6584(5) 0.6203(4) 0.0838(2)
H34 H 0.6826(5) 0.5672(4) 0.0676(2)
C26 C 0.5401(5) 0.4803(4) 0.2013(2)
N11 N 0.4714(5) 0.4920(3) 0.23361(13)
O11 O 0.5706(4) 0.5938(3) 0.11254(11)
N12 N 0.3588(6) 0.5840(5) 0.2752(2)
H35 H 0.327(7) 0.6411(56) 0.2812(21)
H36 H 0.3618(57) 0.5367(44) 0.2908(17)
C27 C 0.4249(5) 0.5759(4) 0.2427(2)
C28 C 0.6331(6) 0.5412(5) 0.1419(2)
H37 H 0.6178(6) 0.4758(5) 0.1350(2)
C29 C 0.4457(6) 0.6543(4) 0.2192(2)
H38 H 0.4133(6) 0.7125(4) 0.2259(2)
C30 C 0.7695(12) 0.5938(15) 0.1494(4)
H39 H 0.8329(12) 0.5501(15) 0.1590(4)
H40 H 0.7593(12) 0.6437(15) 0.1680(4)
O12 O 0.5150(5) 0.6674(3) 0.03419(12)
H43 H 0.4998(53) 0.7088(19) 0.0186(13)
C32 C 0.5129(6) 0.6428(4) 0.1872(2)
H44 H 0.5295(6) 0.6940(4) 0.1715(2)
C33 C 0.6088(7) 0.6991(4) 0.0606(2)
H45 H 0.5712(7) 0.7456(4) 0.0775(2)
H46 H 0.6789(7) 0.7281(4) 0.0468(2)
S6 S 0.4173(3) 0.9047(2) 0.17316(11)
N13 N 0.2529(4) 1.0865(3) 0.20529(12)
C34 C 0.1887(6) 1.1062(4) 0.2396(2)
O13 O 0.1174(4) 1.0451(3) 0.25294(12)
C36 C 0.331(2) 0.9460(24) 0.1304(10)
H48 H 0.2877(20) 0.8927(24) 0.1185(10)
N14 N 0.2058(5) 1.1896(3) 0.25621(13)
O14 O 0.2276(4) 1.0144(3) 0.14574(10)
C37 C 0.2888(5) 1.2510(4) 0.2412(2)
N15 N 0.3073(6) 1.3308(4) 0.2599(2)
H49 H 0.3569(64) 1.3760(47) 0.2506(19)
H50 H 0.2595(75) 1.3451(54) 0.2827(23)
C38 C 0.2235(8) 0.9988(4) 0.1854(2)
H51 H 0.1315(8) 0.9915(4) 0.1902(2)
C39 C 0.3563(6) 1.2321(4) 0.2067(2)
H52 H 0.4135(6) 1.2751(4) 0.1963(2)
C41 C 0.2760(12) 0.9133(8) 0.2013(3)
H55 H 0.2193(12) 0.8605(8) 0.1974(3)
H56 H 0.2953(12) 0.9195(8) 0.2285(3)
C42 C 0.3970(8) 1.0022(6) 0.0992(2)
H57 H 0.4415(8) 0.9606(6) 0.0817(2)
H58 H 0.3340(8) 1.0373(6) 0.0847(2)
O15 O 0.4827(4) 1.0619(3) 0.11605(13)
H59 H 0.5323(50) 1.0322(7) 0.1296(19)
C43 C 0.3346(6) 1.1503(4) 0.1896(2)
H60 H 0.3759(6) 1.1365(4) 0.1667(2)
O16 O 0.7302(6) 1.2418(6) -0.0427(2)
H61 H 0.6576(74) 1.2304(51) -0.0480(21)
H62 H 0.7414(81) 1.2777(58) -0.0175(27)

#END
