
#######################################################################
#
#                 Cambridge Crystallographic Data Centre
#                                CCDC 
#
#######################################################################
#
# If this CIF has been generated from an entry in the Cambridge 
# Structural Database, then it will include bibliographic, chemical, 
# crystal, experimental, refinement or atomic coordinate data resulting 
# from the CCDC's data processing and validation procedures.
#
#######################################################################

data_SUTHAZ02
_symmetry_cell_setting           monoclinic
_symmetry_space_group_name_H-M   'P 21/c'
_symmetry_Int_Tables_number      14
_space_group_name_Hall           '-P 2ybc'
loop_
_symmetry_equiv_pos_site_id
_symmetry_equiv_pos_as_xyz
1 x,y,z
2 -x,1/2+y,1/2-z
3 -x,-y,-z
4 x,1/2-y,1/2+z
_cell_length_a                   17.570(9)
_cell_length_b                   8.574(4)
_cell_length_c                   15.583(8)
_cell_angle_alpha                90
_cell_angle_beta                 112.93(1)
_cell_angle_gamma                90
_cell_volume                     2162.01
loop_
_atom_site_label
_atom_site_type_symbol
_atom_site_fract_x
_atom_site_fract_y
_atom_site_fract_z
C1 C 0.12330 0.32980 -0.45090
C3 C 0.13570 0.41840 -0.51870
C5 C 0.21520 0.43910 -0.51690
C7 C 0.28300 0.37430 -0.44520
C9 C 0.27100 0.28660 -0.37630
C11 C 0.19430 0.26700 -0.37750
C13 C 0.39820 0.13240 -0.50420
C15 C 0.38750 -0.10840 -0.57320
C17 C 0.35620 -0.02170 -0.64960
H1 H 0.02200 0.32700 -0.50600
H3 H 0.05000 0.19900 -0.42600
H5 H 0.09500 0.46400 -0.56800
H7 H 0.22900 0.47900 -0.56100
H9 H 0.31700 0.24600 -0.33300
H11 H 0.18900 0.19900 -0.32700
H13 H 0.43900 -0.05800 -0.43500
H15 H 0.38900 -0.22500 -0.57600
H17 H 0.31100 -0.06000 -0.72700
N1 N 0.04490 0.30470 -0.45020
N3 N 0.42020 0.22460 -0.43070
N5 N 0.41070 -0.02190 -0.49190
O1 O 0.43140 0.47810 -0.35550
O3 O 0.37610 0.47550 -0.52670
S1 S 0.38290 0.39820 -0.44160
S3 S 0.35580 0.17410 -0.62190
C2 C -0.36660 0.33740 -0.18580
C4 C -0.35480 0.41350 -0.25800
C6 C -0.27750 0.42670 -0.25920
C8 C -0.21000 0.36300 -0.18590
C10 C -0.22220 0.28880 -0.11330
C12 C -0.30090 0.27700 -0.11200
C14 C -0.09380 0.11010 -0.24000
C16 C -0.10280 -0.13090 -0.30930
C18 C -0.13520 -0.04520 -0.38590
H2 H -0.49200 0.35600 -0.23000
H4 H -0.46300 0.22300 -0.16900
H6 H -0.39700 0.45900 -0.31400
H8 H -0.25600 0.47700 -0.32400
H10 H -0.18100 0.25500 -0.07900
H12 H -0.30400 0.22100 -0.05400
H14 H -0.05900 -0.08600 -0.16200
H16 H -0.09800 -0.24600 -0.30200
N2 N -0.44620 0.32300 -0.18280
N4 N -0.07420 0.20500 -0.16820
N6 N -0.07980 -0.04390 -0.22940
O2 O -0.06030 0.46110 -0.09730
O4 O -0.11300 0.45020 -0.26770
S2 S -0.10840 0.38020 -0.18220
S4 S -0.13650 0.15130 -0.35960
H H -0.158093 -0.0921576 -0.456381

#END
